         MACRO
&NAME    ABEND &CC,&DUMP,&STEP                                    19872
.*000400,000800,001600-001700,001800-002600,003400-005400         19872
.*005800-006000,006200,006800-007200,007600-008400,008800         19872
         LCLA  &CTR
         LCLB  &B(2)                                              19872
&NAME    DS    0H
         AIF   ('&CC' EQ '').E1
&B(1)    SETB  ('&DUMP' EQ 'DUMP')
&B(2)    SETB  ('&STEP' EQ 'STEP')
         AIF   ('&DUMP' NE '' AND NOT &B(1)).E2                   19872
.TEST    AIF   ('&STEP' NE '' AND NOT &B(2)).E3                   19872
.SETFLGS ANOP
&CTR     SETA  128*&B(1)+64*&B(2)                                 19872
         AIF   ('&CC'(1,1) EQ '(').CONTA
         AIF   (T'&CC NE 'N' OR '&DUMP&STEP' NE '').AA
         AIF   (&CC GT 4095).AA
.CONTA   ANOP
         IHBINNRA &CC         LOAD REG1 WITH COMPCODE             19872
         AIF   (&CTR EQ 0).SVC                                    19872
         LA    0,&CTR         PICK UP DUMP/STEP CODE
         SLL   0,24(0)                           SHIFT TO HIGH BYTE
         OR    1,0                               OR IN WITH COMPCODE
         AGO   .SVC
.AA      CNOP  0,4
         B     *+8            BRANCH AROUND CONSTANT
         DC    AL1(&CTR)                         DUMP/STEP CODE
         DC    AL3(&CC)                          COMPLETION CODE
         L     1,*-4                             LOAD CODES INTO REG 1
.SVC     SVC   13                                LINK TO ABEND ROUTINE
         MEXIT
.E2      IHBERMAC  37,,&DUMP
         AGO   .TEST
.E3      IHBERMAC  38,,&STEP
         AGO   .SETFLGS
.E1      IHBERMAC 28,303
         MEND
         MACRO
&NAME    OPEN  &PAR1,&MF=I,&TYPE=                                A45585
         GBLB  &IHBRDJ                  ON IF RDJFCB MACRO USED
         LCLA  &ACTR,&ASUM,&CTR,&CTR1,&LGTH,&NUMBER
         LCLB  &MFESW,&MFISW,&MFI2SW,&B(10),&NULLSW,&OPT2SW
         LCLC  &PARA
&NUMBER  SETA  N'&PAR1
&CTR     SETA  1
&CTR1    SETA  2
         AIF   (N'&SYSLIST LE 1).TYPE   IF ONLY 1 (PARMLIST)     A45585
         IHBERMAC 238                   EXCESSIVE POS. PARMS     A45585
.TYPE    AIF   (T'&TYPE NE 'O' AND '&TYPE' NE 'J').ERROR8        A45585
         AIF   ('&MF' EQ 'L').RTEL
         AIF   ('&MF' EQ 'I').TESTI
         AIF   (N'&MF LE 1).ERROR3
         AIF   ('&MF(1)' NE 'E').ERROR3
&NAME    IHBINNRA &MF(2)                    LOAD REG 1 WITH LIST ADDR
         AGO   .ISSSVC
.*---------------------------------------------------------------------
.RTEL    ANOP
&NAME    DC    0F'0'                             ALIGN LIST TO FULLWORD
         AIF   ('&PAR1' EQ '').ERROR5
.CLRSW   ANOP
&ASUM    SETA  0
         AIF   (&CTR1 GT &NUMBER).J
         AIF   ('&PAR1(&CTR1)' EQ '').DC1
         AIF   ('&PAR1(&CTR1)'(1,1) NE '(').NOPAREN
&B(1)    SETB  ('&PAR1(&CTR1)'(2,5) EQ 'INPUT')
&B(2)    SETB  ('&PAR1(&CTR1)'(2,6) EQ 'RDBACK')
&B(3)    SETB  ('&PAR1(&CTR1)'(2,5) EQ 'INOUT')
&B(4)    SETB  ('&PAR1(&CTR1)'(2,5) EQ 'UPDAT')
&B(5)    SETB  ('&PAR1(&CTR1)'(2,5) EQ 'OUTIN')
&B(6)    SETB  ('&PAR1(&CTR1)'(2,6) EQ 'OUTPUT')
         AIF   (K'&PAR1(&CTR1) LE 8).STOPNOW
&B(7)    SETB  ('&PAR1(&CTR1)'(8,4) EQ 'LEAV'  OR '&PAR1(&CTR1)'(9,4) EX
               Q 'LEAV')
&B(8)    SETB  ('&PAR1(&CTR1)'(8,4) EQ 'RERE' OR '&PAR1(&CTR1)'(9,4) EQX
                'RERE')
&B(9)    SETB  ('&PAR1(&CTR1)'(8,4) EQ 'DISP' OR '&PAR1(&CTR1)'(9,4) EQX
                'DISP')
&B(10)   SETB  ('&PAR1(&CTR1)'(8,4) EQ 'IDLE' OR '&PAR1(&CTR1)'(9,4) EQX
                'IDLE')
&OPT2SW  SETB  1
         AIF   (&B(7)+&B(8)+&B(9)+&B(10) NE 1).ERROR1
.STOPNOW AIF   (&B(1)+&B(2)+&B(3)+&B(4)+&B(5)+&B(6) NE 1).ERROR1
&ASUM    SETA  &B(2)+3*&B(3)+4*&B(4)+7*&B(5)+15*&B(6)+48*&B(7)+16*&B(8)X
               +32*&B(10)
         AGO   .RESET
.NOPAREN ANOP
&B(1)    SETB  ('&PAR1(&CTR1)' EQ 'INPUT')
&B(2)    SETB  ('&PAR1(&CTR1)' EQ 'RDBACK')
&B(3)    SETB  ('&PAR1(&CTR1)' EQ 'INOUT')
&B(4)    SETB  ('&PAR1(&CTR1)' EQ 'UPDAT')
&B(5)    SETB  ('&PAR1(&CTR1)' EQ 'OUTIN')
&B(6)    SETB  ('&PAR1(&CTR1)' EQ 'OUTPUT')
         AGO   .STOPNOW
.RESET   ANOP
&B(7)    SETB  0
&B(8)    SETB  0
&B(10)   SETB  0
.DC1     AIF   (&MFESW).ERTRTRN
         AIF   (&CTR1 LT &NUMBER).K
.J       ANOP
&ASUM    SETA  &ASUM+128
.K       AIF   (&MFI2SW).I2ROUT
         AIF   (&MFISW).IROUTRN
         DC    AL1(&ASUM)                        OPTION BYTE
         AIF   ('&PAR1(&CTR)' NE '').NOBLANK
         DC    AL3(0)                            DCB ADDRESS
         AGO   .NOTLST
.NOBLANK AIF   ('&PAR1(&CTR)'(1,1) EQ '(').ERROR6
         DC    AL3(&PAR1(&CTR))                  DCB ADDRESS
.NOTLST  AIF   (&CTR1 GE &NUMBER).FINI
&CTR     SETA  &CTR+2
&CTR1    SETA  &CTR1+2
         AGO   .CLRSW
.*---------------------------------------------------------------------
.TESTI   CNOP  0,4                               ALIGN LIST TO FULLWORD
&LGTH    SETA  ((&NUMBER+1)/2)*4+4
&NAME    BAL   1,*+&LGTH                         LOAD REG1 W/LIST ADDR.
&MFISW   SETB  1
.RTEYE   AIF   ('&PAR1(&CTR)' EQ '').ERROR5
         AIF   ('&PAR1(&CTR)'(1,1) NE '(').CLRSW
         DC    A(0)                              OPT BYTE AND DCB ADDR.
         AGO   .UPCTRS
.IROUTRN DC    AL1(&ASUM)                        OPTION BYTE
         DC    AL3(&PAR1(&CTR))                  DCB ADDRESS
.UPCTRS  AIF   (&CTR1 GE &NUMBER).QUITS
&CTR     SETA  &CTR+2
&CTR1    SETA  &CTR1+2
         AGO   .RTEYE
.QUITS   ANOP
&CTR     SETA  1
&CTR1    SETA  2
.ILOOP2  AIF   ('&PAR1(&CTR)'(1,1) NE '(').UPCTR2
&LGTH    SETA  K'&PAR1(&CTR)-2
&PARA    SETC  '&PAR1(&CTR)'(2,&LGTH)
         ST    &PARA,&ACTR.(1,0)                 STORE INTO LIST
&MFI2SW  SETB  1
         AGO   .CLRSW
.I2ROUT  AIF   (&ASUM EQ 0).UPCTR2
         MVI   &ACTR.(1),&ASUM                   MOVE IN OPTION BYTE
.UPCTR2  AIF   (&CTR1 GE &NUMBER).SVCSVC
&CTR     SETA  &CTR+2
&CTR1    SETA  &CTR1+2
&ACTR    SETA  &ACTR+4
         AGO   .ILOOP2
.*---------------------------------------------------------------------
.ISSSVC  AIF   ('&PAR1' EQ '').SVCSVC
.LOOPA   AIF   ('&PAR1(&NUMBER)' NE '').LOOPB
&NUMBER  SETA  &NUMBER-1
         AIF   (&NUMBER EQ 0).SVCSVC
         AGO   .LOOPA
.LOOPB   AIF   ('&PAR1(&CTR)' NE '').TESTCTR
&NULLSW  SETB  1
.TESTCTR AIF   (&CTR EQ &NUMBER).QUITNOW
         AIF   ('&PAR1(&CTR1)' EQ '').NULLTWO
&MFESW   SETB  1
         AGO   .CLRSW
.ERTRTRN AIF   (&CTR1 EQ &NUMBER).THRUNOW
         AIF   (&NULLSW).NOFIRST
         AIF   ('&PAR1(&CTR)'(1,1) EQ '(').REGISTR
         AIF   (NOT &OPT2SW).OPTA
         LA    14,&PAR1(&CTR)                    PICK UP DCB ADDRESS
         ST    14,&ACTR.(1,0)                    STORE INTO LIST
.SHORTB  MVI   &ACTR.(1),&ASUM                   MOVE IN OPTION BYTE
         AGO   .INCRMT
.OPTA    IC    14,&ACTR.(1,0)                    SAVE OPTION BYTE
         LA    0,&PAR1(&CTR)                     PICK UP DCB ADDRESS
         ST    0,&ACTR.(1,0)                     STORE INTO LIST
.SHORTA  STC   14,&ACTR.(1,0)                    RESTORE OPTION BYTE
.OPTC    NI    &ACTR.(1),X'F0'                   CLEAR OPT 1 BITS
         AIF   (&ASUM EQ 0).INCRMT
         OI    &ACTR.(1),&ASUM                   INSERT OPT 1 BITS
         AGO   .INCRMT
.REGISTR ANOP
&LGTH    SETA  K'&PAR1(&CTR)-2
&PARA    SETC  '&PAR1(&CTR)'(2,&LGTH)
         AIF   (NOT &OPT2SW).OPTB
         ST    &PARA,&ACTR.(1,0)                 STORE INTO LIST
         AGO   .SHORTB
.OPTB    IC    14,&ACTR.(1,0)                    SAVE OPTION BYTE
         ST    &PARA,&ACTR.(1,0)                 STORE INTO LIST
         AGO   .SHORTA
.NOFIRST AIF   (NOT &OPT2SW).OPTC
         AGO   .SHORTB
.NULLTWO AIF   (&NULLSW).INCRMT
         AIF   ('&PAR1(&CTR)'(1,1) EQ '(').REGSTER
         IC    14,&ACTR.(1,0)                    SAVE OPTION BYTE
         LA    0,&PAR1(&CTR)                     PICK UP DCB ADDRESS
         ST    0,&ACTR.(1,0)                     STORE INTO LIST
.SHORTC  STC   14,&ACTR.(1,0)                    RESTORE OPTION BYTE
         AGO   .INCRMT
.REGSTER IC    14,&ACTR.(1,0)                    SAVE OPTION BYTE
&LGTH    SETA  K'&PAR1(&CTR)-2
&PARA    SETC  '&PAR1(&CTR)'(2,&LGTH)
         ST    &PARA,&ACTR.(1,0)                 STORE INTO LIST
         AGO   .SHORTC
.QUITNOW IC    14,&ACTR.(1,0)                    SAVE OPTION BYTE
         AIF   ('&PAR1(&CTR)'(1,1) EQ '(').REGST
         LA    0,&PAR1(&CTR)                     PICK UP DCB ADDRESS
         ST    0,&ACTR.(1,0)                     STORE INTO LIST
.SHORTD  STC   14,&ACTR.(1,0)                    RESTORE OPTION BYTE
         AGO   .SVCSVC
.REGST   ANOP
&LGTH    SETA  K'&PAR1(&CTR)-2
&PARA    SETC  '&PAR1(&CTR)'(2,&LGTH)
         ST    &PARA,&ACTR.(1,0)                 STORE INTO LIST
         AGO   .SHORTD
.THRUNOW AIF   (NOT &OPT2SW).OPTD
         NI    &ACTR.(1),X'80'                   CLEAR OPTION BITS
.SHORTE  AIF   (&ASUM EQ 0).CONTA
         OI    &ACTR.(1),&ASUM                   INSERT OPTION BITS
.CONTA   AIF   (&NULLSW).SVCSVC
         AGO   .QUITNOW
.OPTD    NI    &ACTR.(1),X'F0'                   CLEAR OPTION 1 BITS
         AGO   .SHORTE
.INCRMT  ANOP
&CTR     SETA  &CTR+2
&CTR1    SETA  &CTR1+2
&ACTR    SETA  &ACTR+4
&OPT2SW  SETB  0
&NULLSW  SETB  0
         AGO   .LOOPB
.*---------------------------------------------------------------------
.SVCSVC  AIF   (&IHBRDJ).FINI                                   SA51997
         AIF   ('&TYPE' EQ 'J').SVC22   IF TYPE=J
         SVC   19                                ISSUE OPEN SVC
         MEXIT
.SVC22   SVC   22                                ISSUE OPENJ SVC
         MEXIT
.ERROR1  IHBERMAC 49,,&PAR1(&CTR1)      INVALID OPTION OPERAND
         MEXIT
.ERROR3  IHBERMAC 35,,&MF               INVALID MF OPERAND SPECIFIED
         MEXIT
.ERROR5  IHBERMAC 6                     DCB MISSING
         MEXIT
.ERROR6  IHBERMAC 69                    INVALID REG NOTATION W/MF=L
         MEXIT
.ERROR8  IHBERMAC 63,,&TYPE             INVALID TYPE OPERAND     M0626
.FINI    MEND
         MACRO
&CNAME   CLOSE &PAR1,&MF=I,&TYPE=                                A45585
         LCLA  &ACTR,&ASUM,&CTR,&CTR1,&LGTH,&NUMBER
         LCLB  &MFESW,&MFISW,&MFI2SW,&NULLSW,&B(4)
         LCLC  &PARA
&NUMBER  SETA  N'&PAR1
&CTR     SETA  1
&CTR1    SETA  2
         AIF   (N'&SYSLIST LE 1).TYPE   IF ONLY 1 (PARMLIST)     A45585
         IHBERMAC 238                   EXCESSIVE POS. PARMS     A45585
.TYPE    AIF   (T'&TYPE NE 'O' AND '&TYPE' NE 'T').ERROR8        A45585
         AIF   ('&MF' EQ 'L').RTEL
         AIF   ('&MF' EQ 'I').TESTI
         AIF   (N'&MF LE 1).ERROR3
         AIF   ('&MF(1)' NE 'E').ERROR3
&CNAME   IHBINNRA &MF(2)
         AIF   ('&PAR1' EQ '').SVCSVC
.LOOPA   AIF   ('&PAR1(&NUMBER)' NE '').LOOPB
&NUMBER  SETA  &NUMBER-1
         AIF   (&NUMBER EQ 0).SVCSVC
         AGO   .LOOPA
.LOOPB   AIF   ('&PAR1(&CTR)' NE '').TESTCTR
&NULLSW  SETB  1
.TESTCTR AIF   (&CTR EQ &NUMBER).QUITNOW
         AIF   ('&PAR1(&CTR1)' EQ '').NULLTWO
&MFESW   SETB  1
         AGO   .CLRSW
.ERTRTRN AIF   (&CTR1 EQ &NUMBER).THRUNOW
         AIF   (&NULLSW).NOFIRST
         AIF   ('&PAR1(&CTR)'(1,1) EQ '(').REGISTR
         LA    14,&PAR1(&CTR)                    PICK UP DCB ADDRESS
         ST    14,&ACTR.(1,0)                    STORE INTO LIST
.NOFIRST MVI   &ACTR.(1),&ASUM                   MOVE IN OPTION BYTE
         AGO   .INCRMT
.REGISTR ANOP
&LGTH    SETA  K'&PAR1(&CTR)-2
&PARA    SETC  '&PAR1(&CTR)'(2,&LGTH)
         ST    &PARA,&ACTR.(1,0)                 STORE DCB ADDR IN LIST
         MVI   &ACTR.(1),&ASUM                   MOVE IN OPTION BYTE
         AGO   .INCRMT
.NULLTWO AIF   (&NULLSW).INCRMT
         AIF   ('&PAR1(&CTR)'(1,1) EQ '(').REGSTER
         IC    14,&ACTR.(1,0)                    SAVE OPTION BYTE
         LA    0,&PAR1(&CTR)                     PICK UP DCB ADDRESS
         ST    0,&ACTR.(1,0)                     STORE INTO LIST
         STC   14,&ACTR.(1,0)                    RESTORE OPTION BYTE
         AGO   .INCRMT
.REGSTER IC    14,&ACTR.(1,0)                    SAVE OPTION BYTE
&LGTH    SETA  K'&PAR1(&CTR)-2
&PARA    SETC  '&PAR1(&CTR)'(2,&LGTH)
         ST    &PARA,&ACTR.(1,0)                 STORE DCB ADDR IN LIST
         STC   14,&ACTR.(1,0)                    RESTORE OPTION BYTE
         AGO   .INCRMT
.QUITNOW IC    14,&ACTR.(1,0)                    SAVE OPTION BYTE
         AIF   ('&PAR1(&CTR)'(1,1) EQ '(').REGST
         LA    0,&PAR1(&CTR)                     PICK UP DCB ADDRESS
         ST    0,&ACTR.(1,0)                     STORE INTO LIST
         STC   14,&ACTR.(1,0)                    RESTORE OPTION BYTE
         AGO   .SVCSVC
.REGST   ANOP
&LGTH    SETA  K'&PAR1(&CTR)-2
&PARA    SETC  '&PAR1(&CTR)'(2,&LGTH)
         ST    &PARA,&ACTR.(1,0)                 STORE DCB ADDR IN LIST
         STC   14,&ACTR.(1,0)                    RESTORE OPTION BYTE
         AGO   .SVCSVC
.THRUNOW NI    &ACTR.(1),X'80'                   CLEAR OPTION BITS
         AIF   (&ASUM EQ 0).CONTA
         OI    &ACTR.(1),&ASUM                   SET OPTION BITS
.CONTA   AIF   (&NULLSW).SVCSVC
         AGO   .QUITNOW
.INCRMT  ANOP
&CTR     SETA  &CTR+2
&CTR1    SETA  &CTR1+2
&ACTR    SETA  &ACTR+4
&NULLSW  SETB  0
         AGO   .LOOPB
.*---------------------------------------------------------------------
.SVCSVC  AIF   ('&TYPE' NE 'T').ISSST                           SA51997
         SVC   23                                ISSUE TCLOSE SVC
         MEXIT
.ISSST   SVC   20                                ISSUE CLOSE SVC
         MEXIT
.*---------------------------------------------------------------------
.RTEL    ANOP
&CNAME   DC    0F'0'                             ALIGN LIST TO FULLWORD
         AIF   ('&PAR1' EQ '').ERROR5
.CLRSW   ANOP
&ASUM    SETA  0
         AIF   (&CTR1 GT &NUMBER).J
         AIF   ('&PAR1(&CTR1)' EQ '').DC1
&B(1)    SETB  ('&PAR1(&CTR1)' EQ 'REREAD')
&B(2)    SETB  ('&PAR1(&CTR1)' EQ 'LEAVE')
&B(3)    SETB  ('&PAR1(&CTR1)' EQ 'DISP')
&B(4)    SETB  ('&PAR1(&CTR1)' EQ 'REWIND')
         AIF   (&B(1)+&B(2)+&B(3)+&B(4) NE 1).ERROR2
         AIF   (&B(3) AND '&TYPE' EQ 'T' OR &B(4) AND '&TYPE' EQ 'T').EX
               RROR2                                             A33667
&ASUM    SETA  16*&B(1)+48*&B(2)+64*&B(4)
.DC1     AIF   (&MFESW).ERTRTRN
         AIF   (&CTR1 LT &NUMBER).K
.J       ANOP
&ASUM    SETA  &ASUM+128
.K       AIF   (&MFI2SW).I2ROUT
         AIF   (&MFISW).IROUTRN
         DC    AL1(&ASUM)                        OPTION BYTE
         AIF   ('&PAR1(&CTR)' NE '').NOBLANK
         DC    AL3(0)                            DCB ADDRESS
         AGO   .NOTLST
.NOBLANK AIF   ('&PAR1(&CTR)'(1,1) EQ '(').ERROR6
         DC    AL3(&PAR1(&CTR))                  DCB ADDRESS
.NOTLST  AIF   (&CTR1 GE &NUMBER).FINI
&CTR     SETA  &CTR+2
&CTR1    SETA  &CTR1+2
         AGO   .CLRSW
.*---------------------------------------------------------------------
.TESTI   CNOP  0,4                               ALIGN LIST TO FULLWORD
&LGTH    SETA  ((&NUMBER+1)/2)*4+4
&CNAME   BAL   1,*+&LGTH                         LOAD REG1 W/LIST ADDR
&MFISW   SETB  1
.RTEYE   AIF   ('&PAR1(&CTR)' EQ '').ERROR5
         AIF   ('&PAR1(&CTR)'(1,1) NE '(').CLRSW
         DC    A(0)                              OPTION AND DCB ADDRESS
         AGO   .UPCTRS
.IROUTRN DC    AL1(&ASUM)                        OPTION BYTE
         DC    AL3(&PAR1(&CTR))                  DCB ADDRESS
.UPCTRS  AIF   (&CTR1 GE &NUMBER).QUITS
&CTR     SETA  &CTR+2
&CTR1    SETA  &CTR1+2
         AGO   .RTEYE
.QUITS   ANOP
&CTR     SETA  1
&CTR1    SETA  2
.ILOOP2  AIF   ('&PAR1(&CTR)'(1,1) NE '(').UPCTR2
&LGTH    SETA  K'&PAR1(&CTR)-2
&PARA    SETC  '&PAR1(&CTR)'(2,&LGTH)
         ST    &PARA,&ACTR.(1,0)                 STORE DCB ADDRESS
&MFI2SW  SETB  1
         AGO   .CLRSW
.I2ROUT  AIF   (&ASUM EQ 0).UPCTR2
         MVI   &ACTR.(1),&ASUM                   MOVE IN OPTION BYTE
.UPCTR2  AIF   (&CTR1 GE &NUMBER).SVCSVC
&CTR     SETA  &CTR+2
&CTR1    SETA  &CTR1+2
&ACTR    SETA  &ACTR+4
         AGO   .ILOOP2
.ERROR2  IHBERMAC 49,,&PAR1(&CTR1)      INVALID OPTION OPEARND
         MEXIT
.ERROR3  IHBERMAC 35,,&MF               INVALID MF OPERAND SPECIFIED
         MEXIT
.ERROR5  IHBERMAC 6                     DCB MISSING
         MEXIT
.ERROR6  IHBERMAC 69                    INVALID REG NOTATION W/MF=L
         MEXIT
.ERROR8  IHBERMAC 63,,&TYPE             INVALID TYPE OPERAND     M0626
.FINI    MEND
         MACRO
&NAME    TIME  &UNIT,&ADDR                                        20071
         LCLA  &CTR
         LCLB  &B(3)                                              20071
         AIF   (('&UNIT' EQ 'DEC' OR '&UNIT' EQ '' OR '&UNIT' EQ 'TU' O*
               R '&UNIT' EQ 'BIN') AND '&ADDR' NE '').ERR1        20071
&B(1)    SETB  ('&UNIT' EQ 'DEC' OR '&UNIT' EQ '')
&B(2)    SETB  ('&UNIT' EQ 'BIN')
&B(3)    SETB  ('&UNIT' EQ 'MIC')                                 20071
         AIF   ('&UNIT' EQ 'TU').TU
         AIF   (&B(1)+&B(2)+&B(3) NE 1).E1                        20071
&CTR     SETA  &B(2)+2*&B(1)+3*&B(3)                              20071
&NAME    LA    1,&CTR.(0,0)                      LOAD 1 TO SPECIFY UNIT
         AIF   ('&UNIT' NE 'MIC').SVC                             20071
         AIF   ('&ADDR' EQ '').ERR2                               20071
         AIF   ('&ADDR'(1,1) EQ '(').REG                          20071
         LA    0,&ADDR                                            20071
         AGO   .SVC                                               20071
.REG     ANOP                                                     20071
         AIF   ('&ADDR' EQ '(0)').SVC                             20071
         LR    0,&ADDR                                            20071
         AGO   .SVC
.TU      ANOP
&NAME    SR    1,1                               ZERO 1 TO SPECIFY UNIT
.SVC     SVC   11                                ISSUE TIME SVC
         MEXIT
.E1      IHBERMAC 36,378,&UNIT              INVALID UNIT SPECIFIED
         MEXIT                                                    20071
.ERR1    IHBERMAC  236                                            20071
         MEXIT                                                    20071
.ERR2    IHBERMAC 3                                               20071
         MEND
         MACRO
&NAME    LOAD  &EP=,&EPLOC=,&DE=,&DCB=,&HIARCHY=
.*0014000200,004400                                                LCS0
         AIF   ('&HIARCHY' EQ '' OR '&HIARCHY' EQ '0' OR '&HIARCHY' EQ C
               '1').CONTA
         IHBERMAC  195
         MEXIT
.CONTA   AIF   ('&HIARCHY' EQ '').CONT
         CNOP  0,4
.CONT    AIF   ('&EP' NE '').PROCEP     BRANCH IF EP PRESENT
         AIF   ('&EPLOC' EQ '' AND '&DE' EQ '').E1
         AIF   ('&EPLOC' NE '' AND '&DE' NE '').E2
         AIF   ('&DE&EPLOC'(1,1) NE '(').RXTYPE
         AIF   ('&DE(1)&EPLOC(1)' NE '0').NOTZER
&NAME    DS    0H
         AGO   .EPHERE
.NOTZER  ANOP
&NAME    LA    0,0(&EPLOC(1)&DE(1)) LOAD PARAMETER INTO REGISTER ZERO
         AGO   .EPHERE
.RXTYPE  ANOP
&NAME    LA    0,&EPLOC&DE         LOAD PARAMETER INTO REGISTER ZERO
.EPHERE  AIF   ('&DCB' NE '').DCB
.EPOK    AIF   ('&HIARCHY' NE '').FIN
.SRONE   ANOP
         SR    1,1                 SHOW NO DCB PRESENT
.SVC     AIF   ('&DE' EQ '').HIAR
         LNR   0,0   LOAD NEGITIVE OF REG. ZERO TO INDICATE DE
.HIAR    ANOP
         SVC   8                   ISSUE LOAD SVC
         MEXIT
.FIN     ANOP
         L     1,*+8    NO DCB SPECIFIED,HIARCHY SPECIFIED
         AGO   .TESTO
.DCB     AIF   ('&DCB'(1,1) NE '(').RXSPEC
         LA    1,0(&DCB(1))        LOAD ADDR. OF DCB INTO REG. ONE
         AGO   .TESTHY
.RXSPEC  ANOP
         LA    1,&DCB              LOAD ADDR. OF DCB INTO REG. ONE
.TESTHY  AIF   ('&HIARCHY' EQ '').SVC
         O     1,*+8               INSERT HIARCHY PARAMETER
.TESTO   ANOP
         B     *+8   BRANCH AROUND CONSTANT(S)
         AIF   ('&HIARCHY' EQ '1').HONE
         DC    X'01000000'         HIARCHY ZERO SPECIFIED
         AGO   .SVC
.HONE    ANOP
         DC    X'02000000'         HIARCHY ONE SPECIFIED
         AGO   .SVC
.PROCEP  AIF   ('&EPLOC' NE '' OR '&DE' NE '').E2
         AIF   ('&EP'(1,1) EQ '(').E4
         AIF   ('&HIARCHY' NE '').IARCHY
&NAME    LA    0,*+8               LOAD PARAMETER INTO REGISTER ZERO
         B     *+12  BRANCH AROUND CONSTANT(S)
         DC    CL8'&EP'            ENTRY POINT NAME
         AIF   ('&DCB' NE '').NEXTON
         AGO  .SRONE
.NEXT    ANOP
         LA    1,0(&DCB(1))        LOAD ADDR. OF DCB INTO REG. ONE
         AGO   .SVC
.NEXTON  AIF   ('&DCB'(1,1) EQ '(').NEXT
         LA    1,&DCB              LOAD ADDR. OF DCB INTO REG. ONE
         AGO   .SVC
.IARCHY  AIF   ('&DCB' NE '').PREDCB
&NAME    LA    0,*+16              LOAD PARAMETER INTO REGISTER ZERO
         L     1,*+8               NO DCB SPECIFIED,HIARCHY SPECIFIED
         B     *+16  BRANCH AROUND CONSTANT(S)
         AIF   ('&HIARCHY' EQ '1').HIAR1
         DC    X'01000000'         HIARCHY ZERO SPECIFIED
         AGO   .EP
.HIAR1   ANOP
         DC    X'02000000'         HIARCHY ONE SPECIFIED
.EP      ANOP
         DC    CL8'&EP'            ENTRY POINT NAME
         AGO   .SVC
.PREDCB  ANOP
&NAME    LA    0,*+20              LOAD PARAMETER INTO REGISTER ZERO
         AIF   ('&DCB'(1,1) EQ '(').OKAY
         LA    1,&DCB              LOAD ADDR. OF DCB INTO REG. ONE
         AGO  .PAST
.OKAY    ANOP
         LA    1,0(&DCB(1))   LOAD ADDR. OF DCB INTO REG. ONE
.PAST    ANOP
         O     1,*+8               GENERATE HIARCHY PARAMETER
         B     *+16  BRANCH AROUND CONSTANT(S)
         AIF   ('&HIARCHY' EQ '1').PASS
         DC    X'01000000'         HIARCHY ZERO SPECIFIED
         AGO   .PASSES
.PASS    ANOP
         DC    X'02000000'         HIARCHY ONE SPECIFIED
.PASSES  ANOP
         DC    CL8'&EP'            ENTRY POINT NAME
         AGO   .SVC
.E1      IHBERMAC 31,345
         MEXIT
.E2      IHBERMAC 88,345
         MEXIT
.E4      IHBERMAC  26
         MEND
         MACRO
&NAME    DELETE &EP=,&EPLOC=,&DE=
         AIF   ('&EP' NE '').EPPRES
         AIF   ('&EPLOC' EQ '' AND '&DE' EQ '').E1 BOTH MISSING
         AIF   ('&EPLOC' NE '' AND '&DE' NE '').E2 BOTH PRESENT
&NAME    IHBINNRA ,&EPLOC&DE                LOAD REG 0
         AGO   .SVC
.EPPRES  AIF   ('&EPLOC' NE '' OR '&DE' NE '').E2
&NAME    BAL   0,*+12                            LOAD ADDR OF EP SYMBOL
         DC    CL8'&EP'                          EP SYMBOL
.SVC     SVC   9                                 ISSUE DELETE SVC
         MEXIT
.E1      IHBERMAC 01,318                    PARAM MISSING
         MEXIT
.E2      IHBERMAC 88,318                    TWO MANY PARAMS
         MEND
         MACRO
&NAME    DCB   &DDNAME=0,&MACRF=,                      FOUNDATION BLOCK*
               &BFTEK=,&BFALN=,&EODAD=1,&RECFM=,&EXLST=0,     EXTENSION*
               &BUFNO=0,&BUFCB=1,&BUFL=0,&DSORG=,&IOBAD=1,       COMMON*
               &IMSK=,&UMSK=,&EOEA=0,&PCIA=0,                 EXCP APP1*
               &SIOA=0,&CENDA=0,&XENDA=0,&AERR=0,&PGFX=NO,    EXCP APP2*
               &HIARCHY=,                                              *
               &OPTCD=,&SYNAD=1,&BLKSIZE=0,&NCP=0,&LRECL=0,&EROPT=,    *
               &BUFRQ=0,&CLPS=1,&INTVL=0,&CPRI=,             QTAM LINE1*
               &THRESH=,&CPOLL=,&LCBAD=1,                     QTAMLINE2*
               &TRMAD=1,&SOWA=0,                             QTAM QUEUE*
               &MON=,&MONDLY=,&WRU=,&IAM=,&EOM=,&EOT=,   BTAM/QTAM WTTA*
               &LIMCT=0,                                           BDAM*
               &NTM=0,&CYLOFL=0,&RKP=0,&MSWA=1,                  ISAM 1*
               &SMSI=0,&SMSW=0,&MSHI=1,&DBUFNO=0,                ISAM 2*
               &IMGADR=0,&SSRTN=0,&DCBHDR=0,&IMGRTE=0,          XL03123,
               &DEVD=,&KEYLEN=,&TRTCH=,&DEN=,&ERRCNT=0,&FRID=,  XL03127,
               &PRTSP=,&CODE=,&MODE=,&STACK=,                          *
               &GNCP=1,&POLST=0,&GTYPE=EXPRESS,&ERROPT=,&LERB=,   13549*
               &BUFCT=255,&REPOS=N,&TRANS=,&SCT=,&INVLIST=,&BUFOUT=,   *
               &MH=,&PCI=,&BUFMAX=,&BUFIN=,&BUFSIZE=,&RESERVE=,        *
               &BACKUP=NO,&BKUPDCB=0,&BRINGUP=NO,&DMPAUTO=NO,    ICB447*
               &DUMPDCB=0,&IPLAUTO=NO,&IPLTXID=,&CKPTDCB=0,      ICB447*
               &BUFOFF=,&FUNC=,&READYQ=,&STOP=                  XA02235
.*
.*                      SET SYMBOL DECLARATIONS
.*
         GBLA  &A0
         GBLB  &DSORG0,&DSORG1,&DSORG2,&DSORG3,&DSORG4,&DSORG5,&DSORG6
         GBLB  &MACRFD,&MACRFE,&MACRFF,&MAC5,&MAC6,&MAC7,&FXSW,&RECFM0
         GBLB  &DSORG7,&MACRF0,&MACRF1,&MACRF2,&MACRF3,&MACRF4,&MACRF5
         GBLB  &MACRF6,&MACRF7,&MACRF8,&MACRF9,&MACRFA,&MACRFB,&MACRFC
         GBLB  &RECFM1,&RECFM2,&RECFM3,&RECFM4,&RECFM5,&RECFM6,&RECFM7
         GBLB  &OPTCD0,&OPTCD1,&OPTCD2,&OPTCD3,&OPTCD4,&OPTCD6,&OPTCD7
         GBLB  &DSORG9,&DSORGA
         GBLB  &COMSW,&MAC4,&DSORG8,&OPTCD5                        RER1
         LCLA  &A1,&A2,&B(4)                                      13549
         LCLB  &IFLGS4,&IFLGS5,&IFLGS6,&IFLGS7
         LCLB  &B0,&B1,&B2,&B3,&B4,&B5,&B6,&B7
         LCLB  &WTTFLG2,&WTTFLG3
         LCLC  &MTROFF,&EOMC,&EOTC
         LCLC  &C0,&C1,&ERROPTN,&C2                               13549
         LCLA  &BA1,&BA2
         LCLB  &BS2,&BS3,&BS4,&BS5,&BS6,&BS7,&BS8
         LCLB  &BI
         LCLA  &A4
.* TCAM SUPPORT OPERANDS
         LCLA  &SCTAD,&ICDE,&INTFACE
         LCLB  &SW
         LCLC  &TRNTBL,&TRNNO
         LCLA  &WRKA,&WRKB,&WRKC
         LCLA  &LGTH,&INCR,&NUMENT
         LCLA  &TC1
         LCLC  &TC(4)
.*
.* FUNC SUPPORT OPERANDS
         LCLA  &AFUNC,&AFUNC1,&AFUNC2,&AFUNC3,&AMODE
         LCLC  &LFUNC
.*         RELEASE 21.8 DELETIONS/CHANGES
.*                                                              SA57064
.*0000                                                          SA69182
.*0000                                                          SA70399
.*A000       SYSROUTE FROM OY14164                             @SA77206
.*0000                                                         @SA78498
.*         VS1 RELEASE 03.0 DELETIONS/CHANGES
.*                                                              XA02235
.*         VS1 RELEASE 04.0 DELETIONS/CHANGES
.*                                                             @XA06869
.*         RELEASE 21 DELETIONS/CHANGES
.*                                                               A42398
.*0000833400                                                     A49372
.*         RELEASE 20 DELETIONS/CHANGES
.*  RESEQUENCED DCB IN RELEASE 20 TO ACCOMMODATE TCAM CHANGES    S20002
.*  A344467  M0621  A33170  M0624  M0666                         S20038
.*
         AIF   ('&DSORG' NE 'TR').IHB01  IF NOT DSORG = TR       ICB477
&NAME    IHB03 &BACKUP,&BKUPDCB,&BRINGUP,           EXPAND DSORG=TR DCBX
               &DDNAME,&DMPAUTO,&DUMPDCB,&EXLST,                       X
               &IPLAUTO,&IPLTXID,&MACRF,&CKPTDCB                 ICB477
         MEXIT
.*
.*             ANALYZE DSORG, MACRF, RECFM, OPTCD AND NEGATIVE OFFSET
.*
.IHB01   IHB01 &DSORG,&MACRF,&BFTEK,&BFALN,&EODAD,&RECFM,&EXLST,       *
               &BUFCB,&BUFL,&IOBAD,&EOEA,&PCIA,&SIOA,&CENDA,&XENDA,    *
               &AERR,&PGFX,&OPTCD,&BUFNO,&DEVD,&REPOS
         AIF   (&MACRF0 OR &MACRF1 OR &MACRF2 OR &MACRF3 OR &MACRF4 OR *
               &MACRF5 OR &MACRF6 OR &MACRF7 OR &MACRF8 OR &MACRF9 OR &*
               MACRFA OR &MACRFB OR &MACRFC OR &MACRFD).DGN0
         AIF   (&MACRFE OR &MACRFF).DGN0
         IHBERMAC 171
.* THE FOLLOWING LINE OF CODE PUTS THE NAME FOR THE DCB ON A FULL WORD
.* BOUNDARY IN CASE THERE IS A SEVERE ERROR WHICH WOULD INHIBIT DCB
.* EXPANSION.
&NAME    DS    0F            GENERATED TO DEFINE NAME
         MEXIT
.*                      DIAGNOSE DEVICE SUB-PARAMETERS
.*
.DGN0    AIF   (NOT &DSORG8).DGN00
&NAME    IHB02 &DSORG,&MACRF,&DDNAME,&EXLST,&GNCP,&POLST,&GTYPE
         AIF   ( T'&HIARCHY EQ 'O').GEN7C
         IHBERMAC 190,HIARCHY             ERROR
         AGO   .GEN7C
.DGN00   AIF   (T'&KEYLEN EQ 'O' OR &DSORG0 OR &DSORG2 OR (&A0 LE 4 AND*
                '&DEVD' NE 'TA' AND (&DSORG1 OR &DSORG6 OR &MACRF0))).D*
               GN1
         IHBERMAC 100,KEYLEN
.DGN1    AIF   (T'&CODE EQ 'O' OR '&DEVD' EQ 'PT').DGN2
         AIF   ('&DEVD' EQ 'BS' AND &DSORG3).DGN2
         IHBERMAC 101,CODE
.DGN2    AIF   ('&DEVD' EQ 'PC' OR '&DEVD' EQ 'RD').DGN3
         AIF   (T'&MODE EQ 'O').DGN2A
         AIF   ('&DEVD' EQ 'BS' AND &DSORG3).DGN2A
         IHBERMAC 102,MODE
.DGN2A   AIF   (T'&STACK EQ 'O').DGN3
         IHBERMAC 103,STACK
.DGN3    AIF   (T'&PRTSP EQ 'O' OR '&DEVD' EQ 'PR').DGN4
         IHBERMAC 104,PRTSP
.DGN4    AIF   (T'&TRTCH EQ 'O' OR '&DEVD' EQ 'TA').DGN5
         IHBERMAC 105,TRTCH
.DGN5    AIF   (T'&DEN EQ 'O' OR '&DEVD' EQ 'TA').DGN6
         IHBERMAC 106,DEN
.*
.*                      DIAGNOSE BTAM-QTAM OPERANDS
.*
.DGN6    AIF   ('&DEVD' EQ 'WT' AND &DSORG3).DGN61
         AIF   (T'&MON EQ 'O').DGN601
         IHBERMAC 107,MON
.DGN601  AIF   (T'&MONDLY EQ 'O').DGN602
         IHBERMAC 108,MONDLY
.DGN602  AIF   (T'&WRU EQ 'O').DGN603
         IHBERMAC 109,WRU
.DGN603  AIF   (T'&IAM EQ 'O').DGN604
         IHBERMAC 110,IAM
.DGN604  AIF   (T'&EOM EQ 'O').DGN605
         IHBERMAC 111,EOM
.DGN605  AIF   (T'&EOT EQ 'O').DGN61
         IHBERMAC 112,EOT
.DGN61   ANOP
         AIF   (&DSORG3 AND (&MACRF1 OR &MACRF9)).DGN6G
         AIF   ('&BUFRQ' EQ '0' OR &DSORG5).DGN6B
         IHBERMAC 107,BUFRQ
.DGN6B   AIF   ('&CLPS' EQ '1').DGN6C
         IHBERMAC 109,CLPS
.DGN6C   AIF   (&DSORG9 OR &DSORGA).DGN6D
         AIF   ('&INTVL' EQ '0').DGN6D
         IHBERMAC 110,INTVL
.DGN6D   AIF   (&DSORG9 OR &DSORGA).DGN6E
         AIF   (T'&CPRI EQ 'O').DGN6E
         IHBERMAC 111,CPRI
.DGN6E   ANOP
.DGN6F   AIF   (T'&CPOLL EQ 'O').DGN6G
         IHBERMAC 113,CPOLL
.DGN6G   AIF   ('&SOWA' EQ '0' OR &DSORG5).DGN6A
         IHBERMAC 114,SOWA